91858297
  -OEChem-12242523313D

 78 80  0     1  0  0  0  0  0999 V2000
    0.3443   -0.2304    0.1450 O   0  0  0  0  0  0  0  0  0  0  0  0
    2.0833    1.2437   -0.3301 O   0  0  0  0  0  0  0  0  0  0  0  0
   -3.2821    0.2307    0.4822 O   0  0  0  0  0  0  0  0  0  0  0  0
    5.1559    0.4672    1.5481 O   0  0  0  0  0  0  0  0  0  0  0  0
   -4.6363   -0.9385   -1.0768 O   0  0  0  0  0  0  0  0  0  0  0  0
   -2.4689    2.4614   -1.1515 O   0  0  0  0  0  0  0  0  0  0  0  0
    2.5205   -1.5433   -0.9123 O   0  0  0  0  0  0  0  0  0  0  0  0
   -6.4672    1.2713   -0.9206 O   0  0  0  0  0  0  0  0  0  0  0  0
    6.4250    0.2756   -0.4410 O   0  0  0  0  0  0  0  0  0  0  0  0
   -7.4450    0.5784    1.5740 O   0  0  0  0  0  0  0  0  0  0  0  0
   -0.2133   -2.5713    1.4651 O   0  0  0  0  0  0  0  0  0  0  0  0
   -6.9045   -2.2853    1.4782 O   0  0  0  0  0  0  0  0  0  0  0  0
    4.7263    2.9652    2.5631 O   0  0  0  0  0  0  0  0  0  0  0  0
   -4.2027   -3.6033   -1.4982 O   0  0  0  0  0  0  0  0  0  0  0  0
    1.7364    3.5182   -2.2081 O   0  0  0  0  0  0  0  0  0  0  0  0
    5.9281   -3.9606    0.6417 O   0  0  0  0  0  0  0  0  0  0  0  0
    0.2069    3.4172   -0.4565 N   0  0  0  0  0  0  0  0  0  0  0  0
    5.3168   -2.3153   -0.8876 N   0  0  0  0  0  0  0  0  0  0  0  0
   -1.9933    0.3404   -0.1161 C   0  0  1  0  0  0  0  0  0  0  0  0
   -0.1680    2.0260   -0.6033 C   0  0  2  0  0  0  0  0  0  0  0  0
   -1.6283    1.8248   -0.1869 C   0  0  1  0  0  0  0  0  0  0  0  0
    0.7689    1.1298    0.2139 C   0  0  1  0  0  0  0  0  0  0  0  0
   -0.9557   -0.4326    0.7021 C   0  0  1  0  0  0  0  0  0  0  0  0
    3.0119    0.4275    0.3796 C   0  0  1  0  0  0  0  0  0  0  0  0
    3.5630   -0.6191   -0.5939 C   0  0  1  0  0  0  0  0  0  0  0  0
    4.1366    1.2879    0.9674 C   0  0  1  0  0  0  0  0  0  0  0  0
    4.7213   -1.3880    0.0468 C   0  0  2  0  0  0  0  0  0  0  0  0
   -4.3163    0.3281   -0.4910 C   0  0  1  0  0  0  0  0  0  0  0  0
   -5.5576    0.9606    0.1365 C   0  0  2  0  0  0  0  0  0  0  0  0
    5.7689   -0.4249    0.6140 C   0  0  2  0  0  0  0  0  0  0  0  0
   -6.2187    0.0040    1.1301 C   0  0  2  0  0  0  0  0  0  0  0  0
   -1.2197   -1.9349    0.6988 C   0  0  0  0  0  0  0  0  0  0  0  0
   -6.4715   -1.3598    0.4846 C   0  0  1  0  0  0  0  0  0  0  0  0
   -5.1811   -1.8868   -0.1555 C   0  0  1  0  0  0  0  0  0  0  0  0
    3.6313    2.2173    2.0676 C   0  0  0  0  0  0  0  0  0  0  0  0
   -5.4270   -3.1804   -0.9270 C   0  0  0  0  0  0  0  0  0  0  0  0
    1.1297    4.0402   -1.2764 C   0  0  0  0  0  0  0  0  0  0  0  0
    5.8702   -3.5255   -0.5053 C   0  0  0  0  0  0  0  0  0  0  0  0
    1.3147    5.4914   -0.9219 C   0  0  0  0  0  0  0  0  0  0  0  0
    6.3973   -4.3071   -1.6788 C   0  0  0  0  0  0  0  0  0  0  0  0
   -2.0099   -0.0802   -1.1325 H   0  0  0  0  0  0  0  0  0  0  0  0
   -0.0589    1.7717   -1.6666 H   0  0  0  0  0  0  0  0  0  0  0  0
   -1.8340    2.3073    0.7767 H   0  0  0  0  0  0  0  0  0  0  0  0
    0.7914    1.4564    1.2628 H   0  0  0  0  0  0  0  0  0  0  0  0
   -0.9475   -0.0914    1.7462 H   0  0  0  0  0  0  0  0  0  0  0  0
    2.5282   -0.1048    1.2123 H   0  0  0  0  0  0  0  0  0  0  0  0
    3.8661   -0.1473   -1.5362 H   0  0  0  0  0  0  0  0  0  0  0  0
    4.5911    1.9131    0.1874 H   0  0  0  0  0  0  0  0  0  0  0  0
    4.3155   -1.9781    0.8803 H   0  0  0  0  0  0  0  0  0  0  0  0
   -4.0318    0.9408   -1.3459 H   0  0  0  0  0  0  0  0  0  0  0  0
   -5.3101    1.9005    0.6435 H   0  0  0  0  0  0  0  0  0  0  0  0
    6.5325   -0.9947    1.1559 H   0  0  0  0  0  0  0  0  0  0  0  0
   -5.5853   -0.1202    2.0171 H   0  0  0  0  0  0  0  0  0  0  0  0
   -1.1742   -2.3392   -0.3178 H   0  0  0  0  0  0  0  0  0  0  0  0
   -2.1907   -2.1695    1.1412 H   0  0  0  0  0  0  0  0  0  0  0  0
   -7.2740   -1.2761   -0.2576 H   0  0  0  0  0  0  0  0  0  0  0  0
   -0.1885    3.9388    0.3209 H   0  0  0  0  0  0  0  0  0  0  0  0
   -4.4284   -2.0964    0.6138 H   0  0  0  0  0  0  0  0  0  0  0  0
    3.2126    1.6442    2.9016 H   0  0  0  0  0  0  0  0  0  0  0  0
    2.8754    2.9116    1.6888 H   0  0  0  0  0  0  0  0  0  0  0  0
   -2.2392    2.1124   -2.0298 H   0  0  0  0  0  0  0  0  0  0  0  0
    5.3742   -2.0365   -1.8631 H   0  0  0  0  0  0  0  0  0  0  0  0
    2.2230   -1.9614   -0.0863 H   0  0  0  0  0  0  0  0  0  0  0  0
   -6.1372   -3.0169   -1.7444 H   0  0  0  0  0  0  0  0  0  0  0  0
   -5.8037   -3.9730   -0.2735 H   0  0  0  0  0  0  0  0  0  0  0  0
   -6.0411    1.9342   -1.4903 H   0  0  0  0  0  0  0  0  0  0  0  0
    7.3051    0.5271   -0.1131 H   0  0  0  0  0  0  0  0  0  0  0  0
   -7.2368    1.4368    1.9809 H   0  0  0  0  0  0  0  0  0  0  0  0
   -0.3982   -3.5257    1.4458 H   0  0  0  0  0  0  0  0  0  0  0  0
   -6.2002   -2.3643    2.1440 H   0  0  0  0  0  0  0  0  0  0  0  0
    4.3834    3.5476    3.2622 H   0  0  0  0  0  0  0  0  0  0  0  0
    0.3785    6.0330   -1.0834 H   0  0  0  0  0  0  0  0  0  0  0  0
    1.6147    5.5838    0.1259 H   0  0  0  0  0  0  0  0  0  0  0  0
    2.0941    5.9290   -1.5518 H   0  0  0  0  0  0  0  0  0  0  0  0
   -4.3822   -4.4245   -1.9869 H   0  0  0  0  0  0  0  0  0  0  0  0
    7.0881   -3.6906   -2.2611 H   0  0  0  0  0  0  0  0  0  0  0  0
    6.9311   -5.1926   -1.3228 H   0  0  0  0  0  0  0  0  0  0  0  0
    5.5645   -4.6216   -2.3139 H   0  0  0  0  0  0  0  0  0  0  0  0
  1 22  1  0  0  0  0
  1 23  1  0  0  0  0
  2 22  1  0  0  0  0
  2 24  1  0  0  0  0
  3 19  1  0  0  0  0
  3 28  1  0  0  0  0
  4 26  1  0  0  0  0
  4 30  1  0  0  0  0
  5 28  1  0  0  0  0
  5 34  1  0  0  0  0
  6 21  1  0  0  0  0
  6 61  1  0  0  0  0
  7 25  1  0  0  0  0
  7 63  1  0  0  0  0
  8 29  1  0  0  0  0
  8 66  1  0  0  0  0
  9 30  1  0  0  0  0
  9 67  1  0  0  0  0
 10 31  1  0  0  0  0
 10 68  1  0  0  0  0
 11 32  1  0  0  0  0
 11 69  1  0  0  0  0
 12 33  1  0  0  0  0
 12 70  1  0  0  0  0
 13 35  1  0  0  0  0
 13 71  1  0  0  0  0
 14 36  1  0  0  0  0
 14 75  1  0  0  0  0
 15 37  2  0  0  0  0
 16 38  2  0  0  0  0
 17 20  1  0  0  0  0
 17 37  1  0  0  0  0
 17 57  1  0  0  0  0
 18 27  1  0  0  0  0
 18 38  1  0  0  0  0
 18 62  1  0  0  0  0
 19 21  1  0  0  0  0
 19 23  1  0  0  0  0
 19 41  1  0  0  0  0
 20 21  1  0  0  0  0
 20 22  1  0  0  0  0
 20 42  1  0  0  0  0
 21 43  1  0  0  0  0
 22 44  1  0  0  0  0
 23 32  1  0  0  0  0
 23 45  1  0  0  0  0
 24 25  1  0  0  0  0
 24 26  1  0  0  0  0
 24 46  1  0  0  0  0
 25 27  1  0  0  0  0
 25 47  1  0  0  0  0
 26 35  1  0  0  0  0
 26 48  1  0  0  0  0
 27 30  1  0  0  0  0
 27 49  1  0  0  0  0
 28 29  1  0  0  0  0
 28 50  1  0  0  0  0
 29 31  1  0  0  0  0
 29 51  1  0  0  0  0
 30 52  1  0  0  0  0
 31 33  1  0  0  0  0
 31 53  1  0  0  0  0
 32 54  1  0  0  0  0
 32 55  1  0  0  0  0
 33 34  1  0  0  0  0
 33 56  1  0  0  0  0
 34 36  1  0  0  0  0
 34 58  1  0  0  0  0
 35 59  1  0  0  0  0
 35 60  1  0  0  0  0
 36 64  1  0  0  0  0
 36 65  1  0  0  0  0
 37 39  1  0  0  0  0
 38 40  1  0  0  0  0
 39 72  1  0  0  0  0
 39 73  1  0  0  0  0
 39 74  1  0  0  0  0
 40 76  1  0  0  0  0
 40 77  1  0  0  0  0
 40 78  1  0  0  0  0
M  END
> <PUBCHEM_COMPOUND_CID>
91858297

> <PUBCHEM_CONFORMER_RMSD>
1.2

> <PUBCHEM_CONFORMER_DIVERSEORDER>
1
21
17
29
54
8
41
28
24
47
48
25
38
16
37
53
50
18
7
55
27
19
20
45
46
36
23
44
43
15
51
22
33
40
34
31
11
30
49
35
14
13
12
6
26
39
52
9
10
42
3
4
32
5
2

> <PUBCHEM_MMFF94_PARTIAL_CHARGES>
51
1 -0.56
10 -0.68
11 -0.68
12 -0.68
13 -0.68
14 -0.68
15 -0.57
16 -0.57
17 -0.73
18 -0.73
19 0.28
2 -0.56
20 0.3
21 0.28
22 0.56
23 0.28
24 0.28
25 0.28
26 0.28
27 0.3
28 0.56
29 0.28
3 -0.56
30 0.56
31 0.28
32 0.28
33 0.28
34 0.28
35 0.28
36 0.28
37 0.57
38 0.57
39 0.06
4 -0.56
40 0.06
5 -0.56
57 0.37
6 -0.68
61 0.4
62 0.37
63 0.4
66 0.4
67 0.4
68 0.4
69 0.4
7 -0.68
70 0.4
71 0.4
75 0.4
8 -0.68
9 -0.68

> <PUBCHEM_EFFECTIVE_ROTOR_COUNT>
14.6

> <PUBCHEM_PHARMACOPHORE_FEATURES>
30
1 1 acceptor
1 10 acceptor
1 10 donor
1 11 acceptor
1 11 donor
1 12 acceptor
1 12 donor
1 13 acceptor
1 13 donor
1 14 acceptor
1 14 donor
1 15 acceptor
1 16 acceptor
1 17 donor
1 18 donor
1 2 acceptor
1 3 acceptor
1 4 acceptor
1 5 acceptor
1 6 acceptor
1 6 donor
1 7 acceptor
1 7 donor
1 8 acceptor
1 8 donor
1 9 acceptor
1 9 donor
6 1 19 20 21 22 23 rings
6 4 24 25 26 27 30 rings
6 5 28 29 31 33 34 rings

> <PUBCHEM_HEAVY_ATOM_COUNT>
40

> <PUBCHEM_ATOM_DEF_STEREO_COUNT>
14

> <PUBCHEM_ATOM_UDEF_STEREO_COUNT>
1

> <PUBCHEM_BOND_DEF_STEREO_COUNT>
0

> <PUBCHEM_BOND_UDEF_STEREO_COUNT>
0

> <PUBCHEM_ISOTOPIC_ATOM_COUNT>
0

> <PUBCHEM_COMPONENT_COUNT>
1

> <PUBCHEM_CACTVS_TAUTO_COUNT>
4

> <PUBCHEM_CONFORMER_ID>
0579A57900000001

> <PUBCHEM_MMFF94_ENERGY>
105.811

> <PUBCHEM_FEATURE_SELFOVERLAP>
152.472

> <PUBCHEM_SHAPE_FINGERPRINT>
10864689 126 18191578654232645181
11297750 10 18267578010694830424
11331351 85 18411700950311235125
11756154 67 18339649915088970326
12107183 9 18340497699211054705
12166972 35 18339363071118459049
12342043 65 18128814137110297962
12422481 6 18060696191286268959
12623949 98 18202289074524396750
13533116 47 18272651242890729106
13782708 43 18340482275218291906
14725015 67 18265328401103749066
14955137 171 18334582334678928457
15250474 111 18054506083162218959
18393751 57 17910929647431968152
21130935 74 18272372009977143891
23559900 14 18409166631859071221
24771293 8 18266730454248405680
24771750 20 17608951003091957148
3178227 256 18114194033848473681
32027 91 18270953566345462855
3504750 166 18201720622823194829
4073 2 18340204218972648338
5104073 3 18060702814415690819

> <PUBCHEM_SHAPE_MULTIPOLES>
719.31
19.07
5.79
1.62
10.95
1.83
-0.33
-17.06
-2.8
-6.68
2.73
-0.88
0.62
2.09

> <PUBCHEM_SHAPE_SELFOVERLAP>
1479.569

> <PUBCHEM_SHAPE_VOLUME>
403.9

> <PUBCHEM_COORDINATE_TYPE>
2
5
10

$$$$
