glucose
  -OEChem-12252024

 12 12  0  0  0  0            999 V2000
   -1.2990    0.7500    0.0000 C   0  0  0  0  0  0  0  0  0  0  0  0
   -2.0135    0.3375    0.0000 C   0  0  0  0  0  0  0  0  0  0  0  0
   -2.0135   -0.4875    0.0000 C   0  0  0  0  0  0  0  0  0  0  0  0
   -1.2990   -0.9000    0.0000 C   0  0  0  0  0  0  0  0  0  0  0  0
   -0.5845   -0.4875    0.0000 C   0  0  0  0  0  0  0  0  0  0  0  0
   -0.5845    0.3375    0.0000 O   0  0  0  0  0  0  0  0  0  0  0  0
   -1.2990    1.5750    0.0000 O   0  0  0  0  0  0  0  0  0  0  0  0
   -2.7280    0.7500    0.0000 O   0  0  0  0  0  0  0  0  0  0  0  0
   -2.7280   -0.9000    0.0000 O   0  0  0  0  0  0  0  0  0  0  0  0
   -1.2990   -1.7250    0.0000 O   0  0  0  0  0  0  0  0  0  0  0  0
    0.1300   -0.9000    0.0000 C   0  0  0  0  0  0  0  0  0  0  0  0
    0.8445   -0.4875    0.0000 O   0  0  0  0  0  0  0  0  0  0  0  0
  1  2  1  0  0  0  0
  2  3  1  0  0  0  0
  3  4  1  0  0  0  0
  4  5  1  0  0  0  0
  5  6  1  0  0  0  0
  6  1  1  0  0  0  0
  1  7  1  0  0  0  0
  2  8  1  0  0  0  0
  3  9  1  0  0  0  0
  4 10  1  0  0  0  0
  5 11  1  0  0  0  0
 11 12  1  0  0  0  0
M  END
$$$$$$